$ MSC.Nastran input file created on May       29, 2020 at 03:22:32 by
$ Patran 2019
$ Linear Static Analysis, Database
$ Direct Text Input for Bulk Data
$ Elements and Element Properties for region : Panel_1
PSHELL   1       1      .01      1               1
$ Pset: "Panel_1" will be imported as: "pshell.1"
CQUAD4   1       1       1       2       9       8
CQUAD4   2       1       2       3       10      9
CQUAD4   3       1       3       4       11      10
CQUAD4   4       1       4       5       12      11
CQUAD4   5       1       5       6       13      12
CQUAD4   6       1       6       7       14      13
CQUAD4   7       1       8       9       16      15
CQUAD4   8       1       9       10      17      16
CQUAD4   9       1       10      11      18      17
CQUAD4   10      1       11      12      19      18
CQUAD4   11      1       12      13      20      19
CQUAD4   12      1       13      14      21      20
CQUAD4   13      1       15      16      23      22
CQUAD4   14      1       16      17      24      23
CQUAD4   15      1       17      18      25      24
CQUAD4   16      1       18      19      26      25
CQUAD4   17      1       19      20      27      26
CQUAD4   18      1       20      21      28      27
CQUAD4   19      1       22      23      30      29
CQUAD4   20      1       23      24      31      30
$ ... 628 like lines cut
$ Elements and Element Properties for region : Panel_2
PSHELL   2       1      .005     1               1
$ Pset: "Panel_2" will be imported as: "pshell.2"
CQUAD4   253     2       337     338     352     351
CQUAD4   254     2       338     339     353     352
CQUAD4   255     2       339     340     354     353
CQUAD4   256     2       340     341     355     354
CQUAD4   257     2       341     342     356     355
CQUAD4   258     2       342     343     357     356
CQUAD4   259     2       351     352     359     358
CQUAD4   260     2       352     353     360     359
CQUAD4   261     2       353     354     361     360
CQUAD4   262     2       354     355     362     361
CQUAD4   263     2       355     356     363     362
CQUAD4   264     2       356     357     364     363
CQUAD4   265     2       358     359     366     365
CQUAD4   266     2       359     360     367     366
CQUAD4   267     2       360     361     368     367
CQUAD4   268     2       361     362     369     368
CQUAD4   269     2       362     363     370     369
CQUAD4   270     2       363     364     371     370
CQUAD4   271     2       365     366     373     372
CQUAD4   272     2       366     367     374     373
$ ... 628 like lines cut
$ Elements and Element Properties for region : Panel_3
PSHELL   3       1      .00375   1               1
$ Pset: "Panel_3" will be imported as: "pshell.3"
CQUAD4   649     3       680     681     891     890
CQUAD4   650     3       681     682     892     891
CQUAD4   651     3       682     683     893     892
CQUAD4   652     3       683     684     894     893
CQUAD4   653     3       684     685     895     894
CQUAD4   654     3       685     686     896     895
CQUAD4   655     3       890     891     898     897
CQUAD4   656     3       891     892     899     898
CQUAD4   657     3       892     893     900     899
CQUAD4   658     3       893     894     901     900
CQUAD4   659     3       894     895     902     901
CQUAD4   660     3       895     896     903     902
CQUAD4   661     3       897     898     905     904
CQUAD4   662     3       898     899     906     905
CQUAD4   663     3       899     900     907     906
CQUAD4   664     3       900     901     908     907
CQUAD4   665     3       901     902     909     908
CQUAD4   666     3       902     903     910     909
CQUAD4   667     3       904     905     912     911
CQUAD4   668     3       905     906     913     912
$ ... 412 like lines cut
$ Elements and Element Properties for region : Ribs
PSHELL   4       1      .01      1               1
$ Pset: "Ribs" will be imported as: "pshell.4"
CQUAD4   1729    4       1       2       2374    1178
CQUAD4   1730    4       2       3       2364    2374
CQUAD4   1731    4       3       4       2363    2364
CQUAD4   1732    4       4       5       2362    2363
CQUAD4   1733    4       5       6       2361    2362
CQUAD4   1734    4       6       7       2360    2361
CQUAD4   1735    4       1178    2374    2379    1179
CQUAD4   1736    4       2374    2364    2371    2379
CQUAD4   1737    4       2364    2363    2368    2371
CQUAD4   1738    4       2363    2362    2367    2368
CQUAD4   1739    4       2362    2361    2366    2367
CQUAD4   1740    4       2361    2360    2365    2366
CQUAD4   1741    4       1179    2379    2380    1180
CQUAD4   1742    4       2379    2371    2375    2380
CQUAD4   1743    4       2371    2368    2372    2375
CQUAD4   1744    4       2368    2367    2373    2372
CQUAD4   1745    4       2367    2366    2370    2373
CQUAD4   1746    4       2366    2365    2369    2370
CQUAD4   1747    4       2372    2373    2376    2375
CQUAD4   1748    4       2373    2370    2377    2376
$ ... 790 like lines cut
$ Elements and Element Properties for region : Spar_1
PSHELL   5       1      .01      1               1
$ Pset: "Spar_1" will be imported as: "pshell.5"
CQUAD4   2539    5       7       14      3468    2360
CQUAD4   2540    5       14      21      3469    3468
CQUAD4   2541    5       21      28      3470    3469
CQUAD4   2542    5       28      35      3471    3470
CQUAD4   2543    5       35      42      3472    3471
CQUAD4   2544    5       42      49      2483    3472
CQUAD4   2545    5       2360    3468    3475    2365
CQUAD4   2546    5       3468    3469    3476    3475
CQUAD4   2547    5       3469    3470    3477    3476
CQUAD4   2548    5       3470    3471    3478    3477
CQUAD4   2549    5       3471    3472    3479    3478
CQUAD4   2550    5       3472    2483    2488    3479
CQUAD4   2551    5       2365    3475    3482    2369
CQUAD4   2552    5       3475    3476    3483    3482
CQUAD4   2553    5       3476    3477    3484    3483
CQUAD4   2554    5       3477    3478    3485    3484
CQUAD4   2555    5       3478    3479    3486    3485
CQUAD4   2556    5       3479    2488    2492    3486
CQUAD4   2557    5       2369    3482    3489    2378
CQUAD4   2558    5       3482    3483    3490    3489
$ ... 268 like lines cut
$ Elements and Element Properties for region : Spar_2
PSHELL   6       1      5.-4     1               1
$ Pset: "Spar_2" will be imported as: "pshell.6"
CQUAD4   2827    6       105     112     3860    2403
CQUAD4   2828    6       112     119     3861    3860
CQUAD4   2829    6       119     126     3862    3861
CQUAD4   2830    6       126     133     3863    3862
CQUAD4   2831    6       133     140     3864    3863
CQUAD4   2832    6       140     147     2526    3864
CQUAD4   2833    6       2403    3860    3867    2410
CQUAD4   2834    6       3860    3861    3868    3867
CQUAD4   2835    6       3861    3862    3869    3868
CQUAD4   2836    6       3862    3863    3870    3869
CQUAD4   2837    6       3863    3864    3871    3870
CQUAD4   2838    6       3864    2526    2533    3871
CQUAD4   2839    6       2410    3867    3874    2417
CQUAD4   2840    6       3867    3868    3875    3874
CQUAD4   2841    6       3868    3869    3876    3875
CQUAD4   2842    6       3869    3870    3877    3876
CQUAD4   2843    6       3870    3871    3878    3877
CQUAD4   2844    6       3871    2533    2540    3878
CQUAD4   2845    6       2417    3874    3881    2424
CQUAD4   2846    6       3874    3875    3882    3881
$ ... 268 like lines cut
$ Referenced Material Records
$ Material Record : AL6061
$ Description of Material : Date: 07-May-20           Time: 15:02:31
MAT1     1      6.89+10         .33     2700.
$ Multipoint Constraints of the Entire Model
$ ID conflict : the PATRAN MPC ID was 1
RBE2     101026  90001   123456  1       2       3       4       5
         6       7       100     101     102     103     104     105
         198     199     200     201     202     203     1178    1179
         1180    1181    1182    1183    1276    1277    1278    1279
         1280    1281    1374    1375    1376    1377    1378    2360
         2361    2362    2363    2364    2365    2366    2367    2368
         2369    2370    2371    2372    2373    2374    2375    2376
         2377    2378    2379    2380    2381    2382    2383    2398
         2399    2400    2401    2402    2403    2405    2406    2407
         2408    2409    2410    2412    2413    2414    2415    2416
         2417    2419    2420    2421    2422    2423    2424    2426
         2427    2428    2429    2430    2431    2446    2447    2448
         2449    2451    2452    2453    2455    2456    2457    2458
         2459    2460    2461    2462    2464    2465    2466    2467
$ Nodes of the Entire Model
GRID     1               0.      0.      0.
GRID*    2                              .047722533345222 0.
*       .04902858287096
GRID*    3                              .113870590925217 0.
*       .074740529060364
GRID*    4                              .183415785431862 0.
*       .092076703906059
GRID*    5                              .254257649183273 0.
*       .103222340345383
GRID*    6                              .324955016374588 0.
*       .111421413719654
GRID*    7                              .396315932273865 0.
*       .116180911660194
GRID*    8                               0.             .10416667163372
*        0.
GRID*    9                              .047722533345222.104166761040688
*       .04902858287096
GRID*    10                             .113870590925217.104166686534882
*       .074740529060364
GRID*    11                             .183415785431862.104166716337204
*       .092076703906059
GRID*    12                             .254257649183273.104166701436043
*       .103222340345383
GRID*    13                             .324955016374588.104166775941849
*       .111421413719654
GRID*    14                             .396315932273865.104166649281979
*       .116180911660194
GRID*    15                              0.             .208333343267441
*        0.
GRID*    16                             .047722533345222.208333522081375
*       .04902858287096
GRID*    17                             .113870590925217.208333373069763
*       .074740529060364
GRID*    18                             .183415785431862.208333432674408
*       .092076703906059
GRID*    19                             .254257649183273.208333402872086
*       .103222340345383
GRID*    20                             .324955016374588.208333551883698
*       .111421413719654
GRID*    21                             .396315932273865.208333298563957
*       .116180911660194
GRID     22              0.     .3125    0.
GRID*    23                             .047722533345222.312500268220902
*       .04902858287096
GRID*    24                             .113870590925217.312500029802322
*       .074740529060364
GRID*    25                             .183415785431862.312500149011612
*       .092076703906059
GRID*    26                             .254257649183273.312500089406967
*       .103222340345383
GRID*    27                             .324955016374588.312500327825546
*       .111421413719654
GRID*    28                             .396315932273865.312499940395355
*       .116180911660194
GRID*    29                              0.             .416666686534882
*        0.
GRID*    30                             .047722533345222.41666704416275
*       .04902858287096
GRID*    31                             .113870590925217.416666746139526
*       .074740529060364
GRID*    32                             .183415785431862.416666865348816
*       .092076703906059
GRID*    33                             .254257649183273.416666805744171
*       .103222340345383
GRID*    34                             .324955016374588.416667103767395
*       .111421413719654
GRID*    35                             .396315932273865.416666597127914
*       .116180911660194
GRID*    36                              0.             .520833253860474
*        0.
GRID*    37                             .047722533345222.520833730697632
*       .04902858287096
GRID*    38                             .113870590925217.520833373069763
*       .074740529060364
GRID*    39                             .183415785431862.520833492279053
*       .092076703906059
GRID*    40                             .254257649183273.520833432674408
*       .103222340345383
GRID*    41                             .324955016374588.520833849906921
*       .111421413719654
GRID*    42                             .396315932273865.520833194255829
*       .116180911660194
GRID     43              0.     .625     0.
GRID*    44                             .047722533345222.625000536441803
*       .04902858287096
GRID*    45                             .113870590925217.625000059604645
*       .074740529060364
GRID*    46                             .183415785431862.625000298023224
*       .092076703906059
GRID*    47                             .254257649183273.625000178813934
*       .103222340345383
GRID*    48                             .324955016374588.625000655651093
*       .111421413719654
GRID*    49                             .396315932273865.62499988079071
*       .116180911660194
GRID*    57                              0.             .729166686534882
*        0.
GRID*    58                             .047722514718771.729167342185974
*       .049028571695089
GRID*    59                             .113870568573475.729166746139526
*       .074740521609783
GRID*    60                             .183415740728378.729166984558106
*       .092076696455479
GRID*    61                             .254257649183273.729166924953461
*       .103222340345383
GRID*    62                             .324954986572266.729167401790619
*       .111421413719654
GRID*    63                             .396315932273865.729166507720947
*       .116180911660194
GRID*    64                              0.             .833333313465118
*        0.
GRID*    65                             .047722522169352.833334088325501
*       .04902857542038
GRID*    66                             .113870576024056.833333432674408
*       .074740521609783
GRID*    67                             .18341575562954 .833333730697632
*       .092076696455479
GRID*    68                             .254257649183273.833333611488342
*       .103222340345383
GRID*    69                             .324954986572266.83333420753479
*       .111421413719654
GRID*    70                             .396315932273865.833333194255829
*       .116180911660194
GRID     71              0.     .9375    0.
GRID*    72                             .047722522169352.937500834465027
*       .04902857542038
GRID*    73                             .113870583474636.93750011920929
*       .074740529060364
GRID*    74                             .183415770530701.937500417232513
*       .092076703906059
GRID*    75                             .254257649183273.937500298023224
*       .103222340345383
GRID*    76                             .324954986572266.937500953674316
*       .111421413719654
GRID*    77                             .396315932273865.937499821186066
*       .116180911660194
GRID*    78                              0.             1.04166662693024
*        0.
GRID*    79                             .0477225258946421.04166758060455
*       .04902857914567
GRID*    80                             .1138705834746361.04166686534882
*       .074740529060364
GRID*    81                             .1834157705307011.0416671037674
*       .092076703906059
GRID*    82                             .2542576491832731.04166698455811
*       .103222340345383
GRID*    83                             .3249550163745881.04166769981384
*       .111421413719654
GRID*    84                             .3963159322738651.04166650772095
*       .116180911660194
GRID*    85                              0.             1.14583325386047
*        0.
GRID*    86                             .0477225296199321.14583432674408
*       .04902857914567
GRID*    87                             .1138705834746361.14583349227905
*       .074740529060364
GRID*    88                             .1834157705307011.14583373069763
*       .092076703906059
GRID*    89                             .2542576491832731.14583361148834
*       .103222340345383
GRID*    90                             .3249550163745881.14583444595337
*       .111421413719654
GRID*    91                             .3963159322738651.1458330154419
*       .116180911660194
GRID     92              0.     1.25     0.
GRID*    93                             .0477225333452221.25000107288361
*       .04902858287096
GRID*    94                             .1138705909252171.25000011920929
*       .074740529060364
GRID*    95                             .1834157854318621.25000059604645
*       .092076703906059
GRID*    96                             .2542576491832731.25000035762787
*       .103222340345383
GRID*    97                             .3249550163745881.25000131130219
*       .111421413719654
GRID*    98                             .3963159322738651.24999976158142
*       .116180911660194
GRID*    100                            .503414809703827 0.
*       .118788190186024
GRID*    101                            .610714316368103 0.
*       .116602711379528
GRID*    102                            .718439280986786 0.
*       .110799938440323
GRID*    103                            .825546979904175 0.
*       .102550245821476
GRID*    104                            .93245005607605  0.
*       .091913104057312
GRID*    105                            1.03910267353058 0.
*       .07910843193531
GRID*    107                            .503414809703827.104166798293591
*       .118788190186024
GRID*    108                            .610714316368103.104166768491268
*       .116602711379528
GRID*    109                            .718439280986786.104166679084301
*       .110799938440323
GRID*    110                            .825546979904175.104166738688946
*       .102550245821476
GRID*    111                            .93245005607605 .104166783392429
*       .091913104057312
GRID*    112                            1.03910267353058.104166716337204
*       .07910843193531
GRID*    114                            .503414809703827.208333596587181
*       .118788190186024
GRID*    115                            .610714316368103.208333536982536
*       .116602711379528
$ ... 312 like lines cut
GRID     316             0.     1.5625   0.
GRID*    317                            .0477225221693521.56250143051148
*       .04902857542038
GRID*    318                            .1138705834746361.56250023841858
*       .074740529060364
GRID*    319                            .1834157705307011.56250071525574
*       .092076703906059
GRID*    320                            .2542576491832731.56250047683716
*       .103222340345383
GRID*    321                            .3249549865722661.56250166893005
*       .111421413719654
GRID*    322                            .3963159322738651.56249964237213
*       .116180911660194
GRID*    323                             0.             1.66666662693024
*        0.
GRID*    324                            .0477225258946421.666668176651
*       .04902857914567
GRID*    325                            .1138705834746361.66666686534882
*       .074740529060364
GRID*    326                            .1834157705307011.66666746139526
*       .092076703906059
GRID*    327                            .2542576491832731.66666722297669
*       .103222340345383
GRID*    328                            .3249550163745881.66666841506958
*       .111421413719654
GRID*    329                            .3963159322738651.66666638851166
*       .116180911660194
GRID*    330                             0.             1.77083325386047
*        0.
GRID*    331                            .0477225296199321.77083480358124
*       .04902857914567
GRID*    332                            .1138705834746361.77083349227905
*       .074740529060364
GRID*    333                            .1834157705307011.7708340883255
*       .092076703906059
GRID*    334                            .2542576491832731.77083384990692
*       .103222340345383
GRID*    335                            .3249550163745881.77083516120911
*       .111421413719654
GRID*    336                            .3963159322738651.77083289623261
*       .116180911660194
GRID     337             0.     1.875    0.
GRID*    338                            .0477225333452221.87500166893005
*       .04902858287096
GRID*    339                            .1138705909252171.87500023841858
*       .074740529060364
GRID*    340                            .1834157854318621.87500083446503
*       .092076703906059
GRID*    341                            .2542576491832731.87500059604645
*       .103222340345383
GRID*    342                            .3249550163745881.87500190734863
*       .111421413719654
GRID*    343                            .3963159322738651.87499964237213
*       .116180911660194
GRID*    351                             0.             1.97916662693024
*        0.
GRID*    352                            .0477225147187711.97916841506958
*       .049028571695089
GRID*    353                            .1138705685734751.97916698455811
*       .074740521609783
GRID*    354                            .1834157407283781.97916758060455
*       .092076696455479
GRID*    355                            .2542576491832731.97916734218597
*       .103222340345383
GRID*    356                            .3249549865722661.97916877269745
*       .111421413719654
GRID*    357                            .3963159322738651.97916626930237
*       .116180911660194
GRID*    358                             0.             2.08333325386047
*        0.
GRID*    359                            .0477225221693522.08333516120911
*       .04902857542038
GRID*    360                            .1138705760240562.08333373069763
*       .074740521609783
GRID*    361                            .18341575562954 2.08333420753479
*       .092076696455479
GRID*    362                            .2542576491832732.08333396911621
*       .103222340345383
GRID*    363                            .3249549865722662.08333539962769
*       .111421413719654
GRID*    364                            .3963159322738652.0833330154419
*       .116180911660194
GRID     365             0.     2.1875   0.
GRID*    366                            .0477225221693522.18750190734863
*       .04902857542038
GRID*    367                            .1138705834746362.18750023841858
*       .074740529060364
GRID*    368                            .1834157705307012.18750095367432
*       .092076703906059
GRID*    369                            .2542576491832732.18750071525574
*       .103222340345383
GRID*    370                            .3249549865722662.18750238418579
*       .111421413719654
GRID*    371                            .3963159322738652.18749952316284
*       .116180911660194
GRID*    372                             0.             2.29166674613953
*        0.
GRID*    373                            .0477225258946422.29166865348816
*       .04902857914567
GRID*    374                            .1138705834746362.29166698455811
*       .074740529060364
GRID*    375                            .1834157705307012.29166769981384
*       .092076703906059
GRID*    376                            .2542576491832732.29166746139526
*       .103222340345383
GRID*    377                            .3249550163745882.29166913032532
*       .111421413719654
GRID*    378                            .3963159322738652.29166626930237
*       .116180911660194
GRID*    379                             0.             2.39583325386047
*        0.
GRID*    380                            .0477225296199322.39583539962769
*       .04902857914567
GRID*    381                            .1138705834746362.39583349227905
*       .074740529060364
GRID*    382                            .1834157705307012.39583444595337
*       .092076703906059
GRID*    383                            .2542576491832732.39583396911621
*       .103222340345383
GRID*    384                            .3249550163745882.39583587646484
*       .111421413719654
GRID*    385                            .3963159322738652.39583277702332
*       .116180911660194
GRID     386             0.     2.5      0.
GRID*    387                            .0477225333452222.50000214576721
*       .04902858287096
GRID*    388                            .1138705909252172.50000023841858
*       .074740529060364
GRID*    389                            .1834157854318622.5000011920929
*       .092076703906059
GRID*    390                            .2542576491832732.50000071525574
*       .103222340345383
GRID*    391                            .3249550163745882.50000262260437
*       .111421413719654
GRID*    392                            .3963159322738652.49999952316284
*       .116180911660194
GRID*    401                            .5034148097038271.35416805744171
*       .118788190186024
GRID*    402                            .6107143759727481.35416769981384
*       .116602711379528
GRID*    403                            .7184391617774961.35416662693024
*       .110799945890904
GRID*    404                            .8255469799041751.35416746139526
*       .102550245821476
GRID*    405                            .9324501752853391.35416805744171
*       .091913089156151
GRID*    406                            1.039102673530581.35416722297669
*       .07910843193531
GRID*    408                            .5034148097038271.45833492279053
*       .118788190186024
GRID*    409                            .6107143759727481.45833444595337
*       .116602711379528
GRID*    410                            .7184391617774961.45833337306976
*       .110799945890904
GRID*    411                            .8255469799041751.45833420753479
*       .102550245821476
GRID*    412                            .9324501156806951.45833492279053
*       .091913096606731
GRID*    413                            1.039102673530581.45833396911621
*       .07910843193531
GRID*    415                            .5034148097038271.56250166893005
*       .118788190186024
GRID*    416                            .6107143759727481.5625011920929
*       .116602711379528
$ ... 288 like lines cut
GRID     610             0.     2.8125   0.
GRID*    611                            .0477225221693522.81250238418579
*       .04902857542038
GRID*    612                            .1138705834746362.81250047683716
*       .074740529060364
GRID*    613                            .1834157705307012.8125011920929
*       .092076703906059
GRID*    614                            .2542576491832732.81250095367432
*       .103222340345383
GRID*    615                            .3249549865722662.81250286102295
*       .111421413719654
GRID*    616                            .3963159322738652.81249952316284
*       .116180911660194
GRID*    617                             0.             2.91666674613953
*        0.
GRID*    618                            .0477225258946422.9166693687439
*       .04902857914567
GRID*    619                            .1138705834746362.91666698455811
*       .074740529060364
GRID*    620                            .1834157705307012.91666793823242
*       .092076703906059
GRID*    621                            .2542576491832732.91666769981384
*       .103222340345383
GRID*    622                            .3249550163745882.91666960716248
*       .111421413719654
GRID*    623                            .3963159322738652.91666603088379
*       .116180911660194
GRID*    624                             0.             3.02083325386047
*        0.
GRID*    625                            .0477225296199323.02083587646484
*       .04902857914567
GRID*    626                            .1138705834746363.02083373069763
*       .074740529060364
GRID*    627                            .1834157705307013.02083468437195
*       .092076703906059
GRID*    628                            .2542576491832733.02083420753479
*       .103222340345383
GRID*    629                            .3249550163745883.020836353302
*       .111421413719654
GRID*    630                            .3963159322738653.02083277702332
*       .116180911660194
GRID     631             0.     3.125    0.
GRID*    632                            .0477225333452223.12500286102295
*       .04902858287096
GRID*    633                            .1138705909252173.12500047683716
*       .074740529060364
GRID*    634                            .1834157854318623.12500143051148
*       .092076703906059
GRID*    635                            .2542576491832733.12500095367432
*       .103222340345383
GRID*    636                            .3249550163745883.12500333786011
*       .111421413719654
GRID*    637                            .3963159322738653.12499928474426
*       .116180911660194
GRID*    645                             0.             3.22916674613953
*        0.
GRID*    646                            .0477225147187713.22916960716248
*       .049028571695089
GRID*    647                            .1138705685734753.22916722297669
*       .074740521609783
GRID*    648                            .1834157407283783.229168176651
*       .092076696455479
GRID*    649                            .2542576491832733.22916769981384
*       .103222340345383
GRID*    650                            .3249549865722663.22917008399963
*       .111421413719654
GRID*    651                            .3963159322738653.22916603088379
*       .116180911660194
GRID*    652                             0.             3.33333325386047
*        0.
GRID*    653                            .0477225221693523.333336353302
*       .04902857542038
GRID*    654                            .1138705760240563.33333373069763
*       .074740521609783
GRID*    655                            .18341575562954 3.33333468437195
*       .092076696455479
GRID*    656                            .2542576491832733.33333444595337
*       .103222340345383
GRID*    657                            .3249549865722663.33333683013916
*       .111421413719654
GRID*    658                            .3963159322738653.33333277702332
*       .116180911660194
GRID     659             0.     3.4375   0.
GRID*    660                            .0477225221693523.43750309944153
*       .04902857542038
GRID*    661                            .1138705834746363.43750047683716
*       .074740529060364
GRID*    662                            .1834157705307013.43750143051148
*       .092076703906059
GRID*    663                            .2542576491832733.4375011920929
*       .103222340345383
GRID*    664                            .3249549865722663.43750357627869
*       .111421413719654
GRID*    665                            .3963159322738653.43749928474426
*       .116180911660194
GRID*    666                             0.             3.54166674613953
*        0.
GRID*    667                            .0477225258946423.54166984558106
*       .04902857914567
GRID*    668                            .1138705834746363.54166722297669
*       .074740529060364
GRID*    669                            .1834157705307013.541668176651
*       .092076703906059
GRID*    670                            .2542576491832733.54166793823242
*       .103222340345383
GRID*    671                            .3249550163745883.54167032241821
*       .111421413719654
GRID*    672                            .3963159322738653.54166603088379
*       .116180911660194
GRID*    673                             0.             3.64583325386047
*        0.
GRID*    674                            .0477225296199323.64583659172058
*       .04902857914567
GRID*    675                            .1138705834746363.64583373069763
*       .074740529060364
GRID*    676                            .1834157705307013.64583492279053
*       .092076703906059
GRID*    677                            .2542576491832733.64583444595337
*       .103222340345383
GRID*    678                            .3249550163745883.64583706855774
*       .111421413719654
GRID*    679                            .3963159322738653.64583253860474
*       .116180911660194
GRID     680             0.     3.75     0.
GRID*    681                            .0477225333452223.75000333786011
*       .04902858287096
GRID*    682                            .1138705909252173.75000047683716
*       .074740529060364
GRID*    683                            .1834157854318623.75000166893005
*       .092076703906059
GRID*    684                            .2542576491832733.7500011920929
*       .103222340345383
GRID*    685                            .3249550163745883.75000381469727
*       .111421413719654
GRID*    686                            .3963159322738653.74999928474426
*       .116180911660194
GRID*    695                            .5034148097038272.60416960716248
*       .118788190186024
GRID*    696                            .6107143759727482.60416865348816
*       .116602711379528
GRID*    697                            .7184391617774962.60416674613953
*       .110799945890904
GRID*    698                            .8255469799041752.604168176651
*       .102550245821476
GRID*    699                            .9324501156806952.6041693687439
*       .091913096606731
GRID*    700                            1.039102673530582.60416769981384
*       .07910843193531
GRID*    702                            .5034148097038272.70833611488342
*       .118788190186024
GRID*    703                            .6107143759727482.70833539962769
*       .116602711379528
GRID*    704                            .7184391617774962.70833325386047
*       .110799945890904
GRID*    705                            .8255469799041752.70833492279053
*       .102550245821476
GRID*    706                            .9324501156806952.70833611488342
*       .091913096606731
GRID*    707                            1.039102673530582.70833444595337
*       .07910843193531
GRID*    709                            .5034148097038272.81250286102295
*       .118788190186024
GRID*    710                            .6107143759727482.81250214576721
*       .116602711379528
$ ... 288 like lines cut
GRID     904             0.     4.0625   0.
GRID*    905                            .0477225221693524.06250381469727
*       .04902857542038
GRID*    906                            .1138705834746364.06250047683716
*       .074740529060364
GRID*    907                            .1834157705307014.06250190734863
*       .092076703906059
GRID*    908                            .2542576491832734.06250143051148
*       .103222340345383
GRID*    909                            .3249549865722664.06250429153442
*       .111421413719654
GRID*    910                            .3963159322738654.06249904632568
*       .116180911660194
GRID*    911                             0.             4.16666650772095
*        0.
GRID*    912                            .0477225258946424.16667032241821
*       .04902857914567
GRID*    913                            .1138705834746364.16666746139526
*       .074740529060364
GRID*    914                            .1834157705307014.16666841506958
*       .092076703906059
GRID*    915                            .2542576491832734.16666793823242
*       .103222340345383
GRID*    916                            .3249550163745884.16667079925537
*       .111421413719654
GRID*    917                            .3963159322738654.16666603088379
*       .116180911660194
GRID*    918                             0.             4.27083349227905
*        0.
GRID*    919                            .0477225296199324.27083730697632
*       .04902857914567
GRID*    920                            .1138705834746364.27083396911621
*       .074740529060364
GRID*    921                            .1834157705307014.27083539962769
*       .092076703906059
GRID*    922                            .2542576491832734.27083492279053
*       .103222340345383
GRID*    923                            .3249550163745884.27083778381348
*       .111421413719654
GRID*    924                            .3963159322738654.27083253860474
*       .116180911660194
GRID     925             0.     4.375    0.
GRID*    926                            .0477225333452224.37500381469727
*       .04902858287096
GRID*    927                            .1138705909252174.37500047683716
*       .074740529060364
GRID*    928                            .1834157854318624.37500190734863
*       .092076703906059
GRID*    929                            .2542576491832734.37500143051148
*       .103222340345383
GRID*    930                            .3249550163745884.37500476837158
*       .111421413719654
GRID*    931                            .3963159322738654.37499904632568
*       .116180911660194
GRID*    939                             0.             4.47916650772095
*        0.
GRID*    940                            .0477225147187714.47917079925537
*       .049028571695089
GRID*    941                            .1138705685734754.47916746139526
*       .074740521609783
GRID*    942                            .1834157407283784.47916841506958
*       .092076696455479
GRID*    943                            .2542576491832734.47916793823242
*       .103222340345383
GRID*    944                            .3249549865722664.47917127609253
*       .111421413719654
GRID*    945                            .3963159322738654.47916603088379
*       .116180911660194
GRID*    946                             0.             4.58333349227905
*        0.
GRID*    947                            .0477225221693524.58333730697632
*       .04902857542038
GRID*    948                            .1138705760240564.58333396911621
*       .074740521609783
GRID*    949                            .18341575562954 4.58333539962769
*       .092076696455479
GRID*    950                            .2542576491832734.58333492279053
*       .103222340345383
GRID*    951                            .3249549865722664.58333826065064
*       .111421413719654
GRID*    952                            .3963159322738654.58333253860474
*       .116180911660194
GRID     953             0.     4.6875   0.
GRID*    954                            .0477225221693524.68750429153442
*       .04902857542038
GRID*    955                            .1138705834746364.68750047683716
*       .074740529060364
GRID*    956                            .1834157705307014.68750190734863
*       .092076703906059
GRID*    957                            .2542576491832734.68750143051148
*       .103222340345383
GRID*    958                            .3249549865722664.68750476837158
*       .111421413719654
GRID*    959                            .3963159322738654.68749904632568
*       .116180911660194
GRID*    960                             0.             4.79166650772095
*        0.
GRID*    961                            .0477225258946424.79167079925537
*       .04902857914567
GRID*    962                            .1138705834746364.79166746139526
*       .074740529060364
GRID*    963                            .1834157705307014.79166889190674
*       .092076703906059
GRID*    964                            .2542576491832734.79166841506958
*       .103222340345383
GRID*    965                            .3249550163745884.79167175292969
*       .111421413719654
GRID*    966                            .3963159322738654.79166555404663
*       .116180911660194
GRID*    967                             0.             4.89583349227905
*        0.
GRID*    968                            .0477225296199324.89583778381348
*       .04902857914567
GRID*    969                            .1138705834746364.89583396911621
*       .074740529060364
GRID*    970                            .1834157705307014.89583539962769
*       .092076703906059
GRID*    971                            .2542576491832734.89583492279053
*       .103222340345383
GRID*    972                            .3249550163745884.89583826065064
*       .111421413719654
GRID*    973                            .3963159322738654.89583253860474
*       .116180911660194
GRID     974             0.     5.       0.
GRID*    975                            .0477225333452225.00000429153442
*       .04902858287096
GRID*    976                            .1138705909252175.00000047683716
*       .074740529060364
GRID*    977                            .1834157854318625.00000238418579
*       .092076703906059
GRID*    978                            .2542576491832735.00000143051148
*       .103222340345383
GRID*    979                            .3249550163745885.00000524520874
*       .111421413719654
GRID*    980                            .3963159322738654.99999904632568
*       .116180911660194
GRID*    989                            .5034148097038273.85417079925537
*       .118788190186024
GRID*    990                            .6107143759727483.85416960716248
*       .116602711379528
GRID*    991                            .7184391617774963.85416674613953
*       .110799945890904
GRID*    992                            .8255469799041753.85416889190674
*       .102550245821476
GRID*    993                            .9324501156806953.85417079925537
*       .091913096606731
GRID*    994                            1.039102673530583.85416841506958
*       .07910843193531
GRID*    996                            .5034148097038273.95833730697632
*       .118788190186024
GRID*    997                            .6107143759727483.958336353302
*       .116602711379528
GRID*    998                            .7184391617774963.95833325386047
*       .110799945890904
GRID*    999                            .8255469799041753.95833563804627
*       .102550245821476
GRID*    1000                           .9324501156806953.9583375453949
*       .091913096606731
GRID*    1001                           1.039102673530583.95833516120911
*       .07910843193531
GRID*    1003                           .5034148097038274.06250429153442
*       .118788190186024
GRID*    1004                           .6107143759727484.06250333786011
*       .116602711379528
$ ... 4040 like lines cut
GRID     90001          .375     0.      0.
$ Loads for Load Case : Default
$ Displacement Constraints of Load Set : Fixed_Root
SPC1     1       123456  90001
$ Gravity Loading of Load Set : Gravity
GRAV     1       0      9.81     0.      0.     -1.
$ Referenced Coordinate Frames
